/*--------------------------------*- C++ -*----------------------------------*\
| =========                 |                                                 |
| \\      /  F ield         | OpenFOAM: The Open Source CFD Toolbox           |
|  \\    /   O peration     | Version:  2.3.1                                 |
|   \\  /    A nd           | Web:      www.OpenFOAM.org                      |
|    \\/     M anipulation  |                                                 |
\*---------------------------------------------------------------------------*/
FoamFile
{
    version     2.0;
    format      ascii;
    class       dictionary;
    location    "system";
    object      fvSolution;
}
// * * * * * * * * * * * * * * * * * * * * * * * * * * * * * * * * * * * * * //

solvers
{
    p
    {
        solver          GAMG;
        tolerance       1e-07;
        relTol          0.1;
        smoother        GaussSeidel;
        nPreSweeps      0;
        nPostSweeps     2;
        cacheAgglomeration on;
        nCellsInCoarsestLevel 10;
        agglomerator    faceAreaPair;
        mergeLevels     1;
    }

	pFinal
	{
	$p;
	}

    U
    {
        solver          smoothSolver;
        smoother        GaussSeidel;
        nSweeps         1;
        tolerance       1e-08;
        relTol          0.1;
    }

	UFinal
	{
	$U;
	}
    k
    {
        solver          smoothSolver;
        smoother        GaussSeidel;
        nSweeps         1;
        tolerance       1e-08;
        relTol          0.1;
    }
 
    	kFinal
	{
	$k;
	}

    omega
    {
        solver          smoothSolver;
        smoother        GaussSeidel;
        nSweeps         1;
        tolerance       1e-08;
        relTol          0.1;
    }
	omegaFinal
	{
	$omega;
	}

}

PIMPLE
{
    nOuterCorrectors 3;
    nCorrectors      3;
    nNonOrthogonalCorrectors 5;
   // pRefCell        0;
   // pRefValue       0;

   // residualControl
   // {
  //      p  
//	{
//	 relTol              0;
 //        tolerance           1e-8;
//	}
  //      U 
//	{
//	 relTol              0;
  //       tolerance           1e-10;
//	}
 //      "(k|omega)"
//	{
//	 relTol              0;
  //       tolerance           1e-8;
//	}
       // U               1e-10;
       // "(k|omega)"         1e-8;
 //   }
}

relaxationFactors
{
    fields
    {
        p               1; //0.3;
    }
    equations
    {
        U               1; //0.7;
        k               0.005; //0.05;
        omega           0.005; //0.05;
    }
}

cache 
{
    grad(U);
}


// ************************************************************************* //
