/*--------------------------------*- C++ -*----------------------------------*\ 
| =========                 |                                                 | 
| \\      /  F ield         | OpenFOAM: The Open Source CFD Toolbox           | 
|  \\    /   O peration     | Version:  2.1.0                                 | 
|   \\  /    A nd           | Web:      www.OpenFOAM.com                      | 
|    \\/     M anipulation  |                                                 | 
\*---------------------------------------------------------------------------*/ 
FoamFile                                                                        
{                                                                               
    version     2.0;                                                            
    format      ascii;                                                          
    class       dictionary;                                                     
    object      blockMeshDict;                                                  
}                                                                               
// * * * * * * * * * * * * * * * * * * * * * * * * * * * * * * * * * * * * * // 

convertToMeters 1.000000; 

vertices 
( 
    (-4.700848 0.050000 0.000000)
    (0.299152 0.050000 5.000000)
    (1.000000 0.050000 5.000000)
    (10.000000 0.050000 5.000000)
    (0.000000 0.050000 0.000000)
    (0.299152 0.050000 0.030004)
    (0.299152 0.050000 -0.030004)
    (1.000000 0.050000 -0.000000)
    (10.000000 0.050000 -0.000000)
    (0.299152 0.050000 -5.000000)
    (1.000000 0.050000 -5.000000)
    (10.000000 0.050000 -5.000000)
    (-4.700848 -0.050000 0.000000)
    (0.299152 -0.050000 5.000000)
    (1.000000 -0.050000 5.000000)
    (10.000000 -0.050000 5.000000)
    (0.000000 -0.050000 0.000000)
    (0.299152 -0.050000 0.030004)
    (0.299152 -0.050000 -0.030004)
    (1.000000 -0.050000 -0.000000)
    (10.000000 -0.050000 -0.000000)
    (0.299152 -0.050000 -5.000000)
    (1.000000 -0.050000 -5.000000)
    (10.000000 -0.050000 -5.000000)
); 

blocks 
( 
    hex (4 5 1 0 16 17 13 12)     (74 100 1) edgeGrading (1 0.020000 0.020000 1 500.000000 500.000000 500.000000 500.000000 1 1 1 1) 
    hex (5 7 2 1 17 19 14 13)     (175 100 1) simpleGrading (1 500.000000 1) 
    hex (7 8 3 2 19 20 15 14)     (150 100 1) simpleGrading (100.000000 500.000000 1) 
    hex (16 18 21 12 4 6 9 0)     (74 100 1) edgeGrading (1 0.020000 0.020000 1 500.000000 500.000000 500.000000 500.000000 1 1 1 1) 
    hex (18 19 22 21 6 7 10 9)    (175 100 1) simpleGrading (1 500.000000 1) 
    hex (19 20 23 22 7 8 11 10)   (150 100 1) simpleGrading (100.000000 500.000000 1) 
); 

edges 
( 
    spline 4 5 
        ( 
            (0.000015 0.050000 0.000350) 
            (0.000062 0.050000 0.000699) 
            (0.000139 0.050000 0.001047) 
            (0.000248 0.050000 0.001393) 
            (0.000387 0.050000 0.001738) 
            (0.000558 0.050000 0.002083) 
            (0.000759 0.050000 0.002426) 
            (0.000992 0.050000 0.002767) 
            (0.001255 0.050000 0.003108) 
            (0.001549 0.050000 0.003447) 
            (0.001874 0.050000 0.003785) 
            (0.002230 0.050000 0.004121) 
            (0.002617 0.050000 0.004457) 
            (0.003035 0.050000 0.004791) 
            (0.003483 0.050000 0.005124) 
            (0.003962 0.050000 0.005455) 
            (0.004472 0.050000 0.005786) 
            (0.005013 0.050000 0.006114) 
            (0.005585 0.050000 0.006442) 
            (0.006187 0.050000 0.006768) 
            (0.006819 0.050000 0.007093) 
            (0.007483 0.050000 0.007416) 
            (0.008176 0.050000 0.007738) 
            (0.008901 0.050000 0.008058) 
            (0.009655 0.050000 0.008377) 
            (0.010441 0.050000 0.008695) 
            (0.011256 0.050000 0.009011) 
            (0.012102 0.050000 0.009326) 
            (0.012978 0.050000 0.009639) 
            (0.013884 0.050000 0.009950) 
            (0.014820 0.050000 0.010260) 
            (0.015787 0.050000 0.010569) 
            (0.016783 0.050000 0.010875) 
            (0.017810 0.050000 0.011180) 
            (0.018866 0.050000 0.011484) 
            (0.019952 0.050000 0.011786) 
            (0.021068 0.050000 0.012086) 
            (0.022214 0.050000 0.012384) 
            (0.023389 0.050000 0.012681) 
            (0.024594 0.050000 0.012976) 
            (0.025828 0.050000 0.013269) 
            (0.027091 0.050000 0.013561) 
            (0.028384 0.050000 0.013850) 
            (0.029706 0.050000 0.014138) 
            (0.031058 0.050000 0.014424) 
            (0.032438 0.050000 0.014708) 
            (0.033848 0.050000 0.014990) 
            (0.035286 0.050000 0.015270) 
            (0.036753 0.050000 0.015548) 
            (0.038249 0.050000 0.015824) 
            (0.039773 0.050000 0.016098) 
            (0.041326 0.050000 0.016371) 
            (0.042908 0.050000 0.016641) 
            (0.044517 0.050000 0.016909) 
            (0.046155 0.050000 0.017174) 
            (0.047821 0.050000 0.017438) 
            (0.049516 0.050000 0.017700) 
            (0.051238 0.050000 0.017959) 
            (0.052988 0.050000 0.018216) 
            (0.054765 0.050000 0.018471) 
            (0.056570 0.050000 0.018724) 
            (0.058403 0.050000 0.018975) 
            (0.060263 0.050000 0.019223) 
            (0.062150 0.050000 0.019468) 
            (0.064065 0.050000 0.019712) 
            (0.066006 0.050000 0.019953) 
            (0.067975 0.050000 0.020192) 
            (0.069970 0.050000 0.020428) 
            (0.071992 0.050000 0.020662) 
            (0.074040 0.050000 0.020893) 
            (0.076115 0.050000 0.021122) 
            (0.078216 0.050000 0.021348) 
            (0.080343 0.050000 0.021572) 
            (0.082497 0.050000 0.021793) 
            (0.084676 0.050000 0.022012) 
            (0.086881 0.050000 0.022228) 
            (0.089111 0.050000 0.022441) 
            (0.091367 0.050000 0.022652) 
            (0.093648 0.050000 0.022860) 
            (0.095955 0.050000 0.023065) 
            (0.098286 0.050000 0.023268) 
            (0.100643 0.050000 0.023468) 
            (0.103024 0.050000 0.023665) 
            (0.105430 0.050000 0.023859) 
            (0.107860 0.050000 0.024051) 
            (0.110315 0.050000 0.024240) 
            (0.112793 0.050000 0.024426) 
            (0.115296 0.050000 0.024609) 
            (0.117823 0.050000 0.024789) 
            (0.120373 0.050000 0.024966) 
            (0.122947 0.050000 0.025141) 
            (0.125544 0.050000 0.025312) 
            (0.128164 0.050000 0.025481) 
            (0.130808 0.050000 0.025647) 
            (0.133474 0.050000 0.025809) 
            (0.136163 0.050000 0.025969) 
            (0.138875 0.050000 0.026126) 
            (0.141609 0.050000 0.026280) 
            (0.144365 0.050000 0.026430) 
            (0.147143 0.050000 0.026578) 
            (0.149943 0.050000 0.026723) 
            (0.152765 0.050000 0.026864) 
            (0.155609 0.050000 0.027003) 
            (0.158473 0.050000 0.027138) 
            (0.161359 0.050000 0.027271) 
            (0.164266 0.050000 0.027400) 
            (0.167194 0.050000 0.027526) 
            (0.170142 0.050000 0.027649) 
            (0.173111 0.050000 0.027769) 
            (0.176100 0.050000 0.027886) 
            (0.179109 0.050000 0.028000) 
            (0.182138 0.050000 0.028110) 
            (0.185187 0.050000 0.028217) 
            (0.188255 0.050000 0.028322) 
            (0.191343 0.050000 0.028423) 
            (0.194449 0.050000 0.028521) 
            (0.197575 0.050000 0.028616) 
            (0.200719 0.050000 0.028707) 
            (0.203882 0.050000 0.028796) 
            (0.207064 0.050000 0.028881) 
            (0.210263 0.050000 0.028963) 
            (0.213481 0.050000 0.029042) 
            (0.216716 0.050000 0.029118) 
            (0.219969 0.050000 0.029191) 
            (0.223239 0.050000 0.029261) 
            (0.226526 0.050000 0.029327) 
            (0.229830 0.050000 0.029390) 
            (0.233151 0.050000 0.029450) 
            (0.236489 0.050000 0.029507) 
            (0.239842 0.050000 0.029561) 
            (0.243212 0.050000 0.029612) 
            (0.246598 0.050000 0.029659) 
            (0.250000 0.050000 0.029704) 
            (0.253417 0.050000 0.029745) 
            (0.256850 0.050000 0.029783) 
            (0.260297 0.050000 0.029818) 
            (0.263759 0.050000 0.029850) 
            (0.267236 0.050000 0.029879) 
            (0.270728 0.050000 0.029905) 
            (0.274233 0.050000 0.029928) 
            (0.277753 0.050000 0.029948) 
            (0.281286 0.050000 0.029965) 
            (0.284833 0.050000 0.029979) 
            (0.288394 0.050000 0.029989) 
            (0.291967 0.050000 0.029997) 
            (0.295553 0.050000 0.030002) 
        ) 
    spline 5 7 
        ( 
            (0.302764 0.050000 0.030002)
            (0.306387 0.050000 0.029998)
            (0.310023 0.050000 0.029991)
            (0.313670 0.050000 0.029981)
            (0.317329 0.050000 0.029968)
            (0.321000 0.050000 0.029953)
            (0.324681 0.050000 0.029934)
            (0.328374 0.050000 0.029913)
            (0.332076 0.050000 0.029889)
            (0.335790 0.050000 0.029862)
            (0.339513 0.050000 0.029832)
            (0.343247 0.050000 0.029799)
            (0.346990 0.050000 0.029764)
            (0.350743 0.050000 0.029726)
            (0.354505 0.050000 0.029685)
            (0.358275 0.050000 0.029642)
            (0.362055 0.050000 0.029596)
            (0.365843 0.050000 0.029547)
            (0.369640 0.050000 0.029496)
            (0.373445 0.050000 0.029442)
            (0.377257 0.050000 0.029385)
            (0.381077 0.050000 0.029326)
            (0.384905 0.050000 0.029265)
            (0.388740 0.050000 0.029201)
            (0.392581 0.050000 0.029134)
            (0.396429 0.050000 0.029065)
            (0.400284 0.050000 0.028994)
            (0.404145 0.050000 0.028920)
            (0.408011 0.050000 0.028844)
            (0.411884 0.050000 0.028765)
            (0.415762 0.050000 0.028684)
            (0.419645 0.050000 0.028601)
            (0.423533 0.050000 0.028515)
            (0.427426 0.050000 0.028428)
            (0.431323 0.050000 0.028338)
            (0.435225 0.050000 0.028245)
            (0.439130 0.050000 0.028151)
            (0.443040 0.050000 0.028055)
            (0.446953 0.050000 0.027956)
            (0.450869 0.050000 0.027855)
            (0.454788 0.050000 0.027753)
            (0.458710 0.050000 0.027648)
            (0.462635 0.050000 0.027541)
            (0.466562 0.050000 0.027432)
            (0.470491 0.050000 0.027321)
            (0.474422 0.050000 0.027209)
            (0.478354 0.050000 0.027094)
            (0.482288 0.050000 0.026977)
            (0.486223 0.050000 0.026859)
            (0.490159 0.050000 0.026739)
            (0.494095 0.050000 0.026617)
            (0.498032 0.050000 0.026493)
            (0.501968 0.050000 0.026368)
            (0.505905 0.050000 0.026241)
            (0.509841 0.050000 0.026112)
            (0.513777 0.050000 0.025981)
            (0.517712 0.050000 0.025849)
            (0.521646 0.050000 0.025715)
            (0.525578 0.050000 0.025580)
            (0.529509 0.050000 0.025443)
            (0.533438 0.050000 0.025305)
            (0.537365 0.050000 0.025165)
            (0.541290 0.050000 0.025024)
            (0.545212 0.050000 0.024881)
            (0.549131 0.050000 0.024737)
            (0.553047 0.050000 0.024591)
            (0.556960 0.050000 0.024444)
            (0.560870 0.050000 0.024296)
            (0.564775 0.050000 0.024146)
            (0.568677 0.050000 0.023996)
            (0.572574 0.050000 0.023844)
            (0.576467 0.050000 0.023690)
            (0.580355 0.050000 0.023536)
            (0.584238 0.050000 0.023380)
            (0.588116 0.050000 0.023224)
            (0.591989 0.050000 0.023066)
            (0.595855 0.050000 0.022907)
            (0.599716 0.050000 0.022747)
            (0.603571 0.050000 0.022586)
            (0.607419 0.050000 0.022424)
            (0.611260 0.050000 0.022261)
            (0.615095 0.050000 0.022097)
            (0.618923 0.050000 0.021932)
            (0.622743 0.050000 0.021767)
            (0.626555 0.050000 0.021600)
            (0.630360 0.050000 0.021433)
            (0.634157 0.050000 0.021264)
            (0.637945 0.050000 0.021095)
            (0.641725 0.050000 0.020926)
            (0.645495 0.050000 0.020755)
            (0.649257 0.050000 0.020584)
            (0.653010 0.050000 0.020412)
            (0.656753 0.050000 0.020239)
            (0.660487 0.050000 0.020066)
            (0.664210 0.050000 0.019892)
            (0.667924 0.050000 0.019718)
            (0.671626 0.050000 0.019543)
            (0.675319 0.050000 0.019368)
            (0.679000 0.050000 0.019192)
            (0.682671 0.050000 0.019015)
            (0.686330 0.050000 0.018838)
            (0.689977 0.050000 0.018661)
            (0.693613 0.050000 0.018483)
            (0.697236 0.050000 0.018305)
            (0.700848 0.050000 0.018126)
            (0.704447 0.050000 0.017947)
            (0.708033 0.050000 0.017768)
            (0.711606 0.050000 0.017589)
            (0.715167 0.050000 0.017409)
            (0.718714 0.050000 0.017229)
            (0.722247 0.050000 0.017049)
            (0.725767 0.050000 0.016868)
            (0.729272 0.050000 0.016688)
            (0.732764 0.050000 0.016507)
            (0.736241 0.050000 0.016326)
            (0.739703 0.050000 0.016145)
            (0.743150 0.050000 0.015964)
            (0.746583 0.050000 0.015783)
            (0.750000 0.050000 0.015602)
            (0.753402 0.050000 0.015421)
            (0.756788 0.050000 0.015240)
            (0.760158 0.050000 0.015059)
            (0.763511 0.050000 0.014878)
            (0.766849 0.050000 0.014697)
            (0.770170 0.050000 0.014516)
            (0.773474 0.050000 0.014336)
            (0.776761 0.050000 0.014155)
            (0.780031 0.050000 0.013975)
            (0.783284 0.050000 0.013795)
            (0.786519 0.050000 0.013615)
            (0.789737 0.050000 0.013435)
            (0.792936 0.050000 0.013256)
            (0.796118 0.050000 0.013077)
            (0.799281 0.050000 0.012898)
            (0.802425 0.050000 0.012720)
            (0.805551 0.050000 0.012542)
            (0.808657 0.050000 0.012364)
            (0.811745 0.050000 0.012187)
            (0.814813 0.050000 0.012010)
            (0.817862 0.050000 0.011834)
            (0.820891 0.050000 0.011658)
            (0.823900 0.050000 0.011483)
            (0.826889 0.050000 0.011308)
            (0.829858 0.050000 0.011133)
            (0.832806 0.050000 0.010960)
            (0.835734 0.050000 0.010787)
            (0.838641 0.050000 0.010614)
            (0.841527 0.050000 0.010442)
            (0.844391 0.050000 0.010271)
            (0.847235 0.050000 0.010100)
            (0.850057 0.050000 0.009931)
            (0.852857 0.050000 0.009761)
            (0.855635 0.050000 0.009593)
            (0.858391 0.050000 0.009425)
            (0.861125 0.050000 0.009259)
            (0.863837 0.050000 0.009093)
            (0.866526 0.050000 0.008927)
            (0.869192 0.050000 0.008763)
            (0.871836 0.050000 0.008600)
            (0.874456 0.050000 0.008437)
            (0.877053 0.050000 0.008276)
            (0.879627 0.050000 0.008115)
            (0.882177 0.050000 0.007955)
            (0.884704 0.050000 0.007797)
            (0.887207 0.050000 0.007639)
            (0.889685 0.050000 0.007482)
            (0.892140 0.050000 0.007327)
            (0.894570 0.050000 0.007172)
            (0.896976 0.050000 0.007019)
            (0.899357 0.050000 0.006866)
            (0.901714 0.050000 0.006715)
            (0.904045 0.050000 0.006565)
            (0.906352 0.050000 0.006417)
            (0.908633 0.050000 0.006269)
            (0.910889 0.050000 0.006123)
            (0.913119 0.050000 0.005978)
            (0.915324 0.050000 0.005834)
            (0.917503 0.050000 0.005691)
            (0.919657 0.050000 0.005550)
            (0.921784 0.050000 0.005410)
            (0.923885 0.050000 0.005272)
            (0.925960 0.050000 0.005135)
            (0.928008 0.050000 0.004999)
            (0.930030 0.050000 0.004865)
            (0.932025 0.050000 0.004732)
            (0.933994 0.050000 0.004600)
            (0.935935 0.050000 0.004470)
            (0.937850 0.050000 0.004342)
            (0.939737 0.050000 0.004215)
            (0.941597 0.050000 0.004090)
            (0.943430 0.050000 0.003966)
            (0.945235 0.050000 0.003844)
            (0.947012 0.050000 0.003723)
            (0.948762 0.050000 0.003604)
            (0.950484 0.050000 0.003487)
            (0.952179 0.050000 0.003371)
            (0.953845 0.050000 0.003257)
            (0.955483 0.050000 0.003145)
            (0.957092 0.050000 0.003034)
            (0.958674 0.050000 0.002925)
            (0.960227 0.050000 0.002818)
            (0.961751 0.050000 0.002712)
            (0.963247 0.050000 0.002609)
            (0.964714 0.050000 0.002507)
            (0.966152 0.050000 0.002407)
            (0.967562 0.050000 0.002309)
            (0.968942 0.050000 0.002213)
            (0.970294 0.050000 0.002118)
            (0.971616 0.050000 0.002026)
            (0.972909 0.050000 0.001935)
            (0.974172 0.050000 0.001846)
            (0.975406 0.050000 0.001759)
            (0.976611 0.050000 0.001674)
            (0.977786 0.050000 0.001591)
            (0.978932 0.050000 0.001510)
            (0.980048 0.050000 0.001431)
            (0.981134 0.050000 0.001354)
            (0.982190 0.050000 0.001280)
            (0.983217 0.050000 0.001207)
            (0.984213 0.050000 0.001136)
            (0.985180 0.050000 0.001067)
            (0.986116 0.050000 0.001000)
            (0.987022 0.050000 0.000935)
            (0.987898 0.050000 0.000873)
            (0.988744 0.050000 0.000812)
            (0.989559 0.050000 0.000754)
            (0.990345 0.050000 0.000697)
            (0.991099 0.050000 0.000643)
            (0.991824 0.050000 0.000591)
            (0.992517 0.050000 0.000541)
            (0.993181 0.050000 0.000493)
            (0.993813 0.050000 0.000448)
            (0.994415 0.050000 0.000404)
            (0.994987 0.050000 0.000363)
            (0.995528 0.050000 0.000324)
            (0.996038 0.050000 0.000287)
            (0.996517 0.050000 0.000253)
            (0.996965 0.050000 0.000220)
            (0.997383 0.050000 0.000190)
            (0.997770 0.050000 0.000162)
            (0.998126 0.050000 0.000136)
            (0.998451 0.050000 0.000112)
            (0.998745 0.050000 0.000091)
            (0.999008 0.050000 0.000072)
            (0.999241 0.050000 0.000055)
            (0.999442 0.050000 0.000041)
            (0.999613 0.050000 0.000028)
            (0.999752 0.050000 0.000018)
            (0.999861 0.050000 0.000010)
            (0.999938 0.050000 0.000005)
            (0.999985 0.050000 0.000001)
        ) 
    spline 4 6 
        ( 
            (0.000015 0.050000 -0.000350)
            (0.000062 0.050000 -0.000699)
            (0.000139 0.050000 -0.001047)
            (0.000248 0.050000 -0.001393)
            (0.000387 0.050000 -0.001738)
            (0.000558 0.050000 -0.002083)
            (0.000759 0.050000 -0.002426)
            (0.000992 0.050000 -0.002767)
            (0.001255 0.050000 -0.003108)
            (0.001549 0.050000 -0.003447)
            (0.001874 0.050000 -0.003785)
            (0.002230 0.050000 -0.004121)
            (0.002617 0.050000 -0.004457)
            (0.003035 0.050000 -0.004791)
            (0.003483 0.050000 -0.005124)
            (0.003962 0.050000 -0.005455)
            (0.004472 0.050000 -0.005786)
            (0.005013 0.050000 -0.006114)
            (0.005585 0.050000 -0.006442)
            (0.006187 0.050000 -0.006768)
            (0.006819 0.050000 -0.007093)
            (0.007483 0.050000 -0.007416)
            (0.008176 0.050000 -0.007738)
            (0.008901 0.050000 -0.008058)
            (0.009655 0.050000 -0.008377)
            (0.010441 0.050000 -0.008695)
            (0.011256 0.050000 -0.009011)
            (0.012102 0.050000 -0.009326)
            (0.012978 0.050000 -0.009639)
            (0.013884 0.050000 -0.009950)
            (0.014820 0.050000 -0.010260)
            (0.015787 0.050000 -0.010569)
            (0.016783 0.050000 -0.010875)
            (0.017810 0.050000 -0.011180)
            (0.018866 0.050000 -0.011484)
            (0.019952 0.050000 -0.011786)
            (0.021068 0.050000 -0.012086)
            (0.022214 0.050000 -0.012384)
            (0.023389 0.050000 -0.012681)
            (0.024594 0.050000 -0.012976)
            (0.025828 0.050000 -0.013269)
            (0.027091 0.050000 -0.013561)
            (0.028384 0.050000 -0.013850)
            (0.029706 0.050000 -0.014138)
            (0.031058 0.050000 -0.014424)
            (0.032438 0.050000 -0.014708)
            (0.033848 0.050000 -0.014990)
            (0.035286 0.050000 -0.015270)
            (0.036753 0.050000 -0.015548)
            (0.038249 0.050000 -0.015824)
            (0.039773 0.050000 -0.016098)
            (0.041326 0.050000 -0.016371)
            (0.042908 0.050000 -0.016641)
            (0.044517 0.050000 -0.016909)
            (0.046155 0.050000 -0.017174)
            (0.047821 0.050000 -0.017438)
            (0.049516 0.050000 -0.017700)
            (0.051238 0.050000 -0.017959)
            (0.052988 0.050000 -0.018216)
            (0.054765 0.050000 -0.018471)
            (0.056570 0.050000 -0.018724)
            (0.058403 0.050000 -0.018975)
            (0.060263 0.050000 -0.019223)
            (0.062150 0.050000 -0.019468)
            (0.064065 0.050000 -0.019712)
            (0.066006 0.050000 -0.019953)
            (0.067975 0.050000 -0.020192)
            (0.069970 0.050000 -0.020428)
            (0.071992 0.050000 -0.020662)
            (0.074040 0.050000 -0.020893)
            (0.076115 0.050000 -0.021122)
            (0.078216 0.050000 -0.021348)
            (0.080343 0.050000 -0.021572)
            (0.082497 0.050000 -0.021793)
            (0.084676 0.050000 -0.022012)
            (0.086881 0.050000 -0.022228)
            (0.089111 0.050000 -0.022441)
            (0.091367 0.050000 -0.022652)
            (0.093648 0.050000 -0.022860)
            (0.095955 0.050000 -0.023065)
            (0.098286 0.050000 -0.023268)
            (0.100643 0.050000 -0.023468)
            (0.103024 0.050000 -0.023665)
            (0.105430 0.050000 -0.023859)
            (0.107860 0.050000 -0.024051)
            (0.110315 0.050000 -0.024240)
            (0.112793 0.050000 -0.024426)
            (0.115296 0.050000 -0.024609)
            (0.117823 0.050000 -0.024789)
            (0.120373 0.050000 -0.024966)
            (0.122947 0.050000 -0.025141)
            (0.125544 0.050000 -0.025312)
            (0.128164 0.050000 -0.025481)
            (0.130808 0.050000 -0.025647)
            (0.133474 0.050000 -0.025809)
            (0.136163 0.050000 -0.025969)
            (0.138875 0.050000 -0.026126)
            (0.141609 0.050000 -0.026280)
            (0.144365 0.050000 -0.026430)
            (0.147143 0.050000 -0.026578)
            (0.149943 0.050000 -0.026723)
            (0.152765 0.050000 -0.026864)
            (0.155609 0.050000 -0.027003)
            (0.158473 0.050000 -0.027138)
            (0.161359 0.050000 -0.027271)
            (0.164266 0.050000 -0.027400)
            (0.167194 0.050000 -0.027526)
            (0.170142 0.050000 -0.027649)
            (0.173111 0.050000 -0.027769)
            (0.176100 0.050000 -0.027886)
            (0.179109 0.050000 -0.028000)
            (0.182138 0.050000 -0.028110)
            (0.185187 0.050000 -0.028217)
            (0.188255 0.050000 -0.028322)
            (0.191343 0.050000 -0.028423)
            (0.194449 0.050000 -0.028521)
            (0.197575 0.050000 -0.028616)
            (0.200719 0.050000 -0.028707)
            (0.203882 0.050000 -0.028796)
            (0.207064 0.050000 -0.028881)
            (0.210263 0.050000 -0.028963)
            (0.213481 0.050000 -0.029042)
            (0.216716 0.050000 -0.029118)
            (0.219969 0.050000 -0.029191)
            (0.223239 0.050000 -0.029261)
            (0.226526 0.050000 -0.029327)
            (0.229830 0.050000 -0.029390)
            (0.233151 0.050000 -0.029450)
            (0.236489 0.050000 -0.029507)
            (0.239842 0.050000 -0.029561)
            (0.243212 0.050000 -0.029612)
            (0.246598 0.050000 -0.029659)
            (0.250000 0.050000 -0.029704)
            (0.253417 0.050000 -0.029745)
            (0.256850 0.050000 -0.029783)
            (0.260297 0.050000 -0.029818)
            (0.263759 0.050000 -0.029850)
            (0.267236 0.050000 -0.029879)
            (0.270728 0.050000 -0.029905)
            (0.274233 0.050000 -0.029928)
            (0.277753 0.050000 -0.029948)
            (0.281286 0.050000 -0.029965)
            (0.284833 0.050000 -0.029979)
            (0.288394 0.050000 -0.029989)
            (0.291967 0.050000 -0.029997)
            (0.295553 0.050000 -0.030002)
        ) 
    spline 6 7 
        ( 
            (0.302764 0.050000 -0.030002)
            (0.306387 0.050000 -0.029998)
            (0.310023 0.050000 -0.029991)
            (0.313670 0.050000 -0.029981)
            (0.317329 0.050000 -0.029968)
            (0.321000 0.050000 -0.029953)
            (0.324681 0.050000 -0.029934)
            (0.328374 0.050000 -0.029913)
            (0.332076 0.050000 -0.029889)
            (0.335790 0.050000 -0.029862)
            (0.339513 0.050000 -0.029832)
            (0.343247 0.050000 -0.029799)
            (0.346990 0.050000 -0.029764)
            (0.350743 0.050000 -0.029726)
            (0.354505 0.050000 -0.029685)
            (0.358275 0.050000 -0.029642)
            (0.362055 0.050000 -0.029596)
            (0.365843 0.050000 -0.029547)
            (0.369640 0.050000 -0.029496)
            (0.373445 0.050000 -0.029442)
            (0.377257 0.050000 -0.029385)
            (0.381077 0.050000 -0.029326)
            (0.384905 0.050000 -0.029265)
            (0.388740 0.050000 -0.029201)
            (0.392581 0.050000 -0.029134)
            (0.396429 0.050000 -0.029065)
            (0.400284 0.050000 -0.028994)
            (0.404145 0.050000 -0.028920)
            (0.408011 0.050000 -0.028844)
            (0.411884 0.050000 -0.028765)
            (0.415762 0.050000 -0.028684)
            (0.419645 0.050000 -0.028601)
            (0.423533 0.050000 -0.028515)
            (0.427426 0.050000 -0.028428)
            (0.431323 0.050000 -0.028338)
            (0.435225 0.050000 -0.028245)
            (0.439130 0.050000 -0.028151)
            (0.443040 0.050000 -0.028055)
            (0.446953 0.050000 -0.027956)
            (0.450869 0.050000 -0.027855)
            (0.454788 0.050000 -0.027753)
            (0.458710 0.050000 -0.027648)
            (0.462635 0.050000 -0.027541)
            (0.466562 0.050000 -0.027432)
            (0.470491 0.050000 -0.027321)
            (0.474422 0.050000 -0.027209)
            (0.478354 0.050000 -0.027094)
            (0.482288 0.050000 -0.026977)
            (0.486223 0.050000 -0.026859)
            (0.490159 0.050000 -0.026739)
            (0.494095 0.050000 -0.026617)
            (0.498032 0.050000 -0.026493)
            (0.501968 0.050000 -0.026368)
            (0.505905 0.050000 -0.026241)
            (0.509841 0.050000 -0.026112)
            (0.513777 0.050000 -0.025981)
            (0.517712 0.050000 -0.025849)
            (0.521646 0.050000 -0.025715)
            (0.525578 0.050000 -0.025580)
            (0.529509 0.050000 -0.025443)
            (0.533438 0.050000 -0.025305)
            (0.537365 0.050000 -0.025165)
            (0.541290 0.050000 -0.025024)
            (0.545212 0.050000 -0.024881)
            (0.549131 0.050000 -0.024737)
            (0.553047 0.050000 -0.024591)
            (0.556960 0.050000 -0.024444)
            (0.560870 0.050000 -0.024296)
            (0.564775 0.050000 -0.024146)
            (0.568677 0.050000 -0.023996)
            (0.572574 0.050000 -0.023844)
            (0.576467 0.050000 -0.023690)
            (0.580355 0.050000 -0.023536)
            (0.584238 0.050000 -0.023380)
            (0.588116 0.050000 -0.023224)
            (0.591989 0.050000 -0.023066)
            (0.595855 0.050000 -0.022907)
            (0.599716 0.050000 -0.022747)
            (0.603571 0.050000 -0.022586)
            (0.607419 0.050000 -0.022424)
            (0.611260 0.050000 -0.022261)
            (0.615095 0.050000 -0.022097)
            (0.618923 0.050000 -0.021932)
            (0.622743 0.050000 -0.021767)
            (0.626555 0.050000 -0.021600)
            (0.630360 0.050000 -0.021433)
            (0.634157 0.050000 -0.021264)
            (0.637945 0.050000 -0.021095)
            (0.641725 0.050000 -0.020926)
            (0.645495 0.050000 -0.020755)
            (0.649257 0.050000 -0.020584)
            (0.653010 0.050000 -0.020412)
            (0.656753 0.050000 -0.020239)
            (0.660487 0.050000 -0.020066)
            (0.664210 0.050000 -0.019892)
            (0.667924 0.050000 -0.019718)
            (0.671626 0.050000 -0.019543)
            (0.675319 0.050000 -0.019368)
            (0.679000 0.050000 -0.019192)
            (0.682671 0.050000 -0.019015)
            (0.686330 0.050000 -0.018838)
            (0.689977 0.050000 -0.018661)
            (0.693613 0.050000 -0.018483)
            (0.697236 0.050000 -0.018305)
            (0.700848 0.050000 -0.018126)
            (0.704447 0.050000 -0.017947)
            (0.708033 0.050000 -0.017768)
            (0.711606 0.050000 -0.017589)
            (0.715167 0.050000 -0.017409)