/*--------------------------------*- C++ -*----------------------------------*\
| =========                 |                                                 |
| \\      /  F ield         | OpenFOAM: The Open Source CFD Toolbox           |
|  \\    /   O peration     | Version:  2.3.x                                 |
|   \\  /    A nd           | Web:      www.OpenFOAM.org                      |
|    \\/     M anipulation  |                                                 |
\*---------------------------------------------------------------------------*/
FoamFile
{
    version     2.0;
    format      ascii;
    class       polyBoundaryMesh;
    location    "constant/polyMesh";
    object      boundary;
}
// * * * * * * * * * * * * * * * * * * * * * * * * * * * * * * * * * * * * * //

5
(
    inlet
    {
        type            patch;
        nFaces          148;
        startFace       158852;
    }
    outlet
    {
        type            patch;
        nFaces          200;
        startFace       159000;
    }
    topAndBottom
    {
        type            patch;
        nFaces          650;
        startFace       159200;
    }
    wing
    {
        type            wall;
        inGroups        1(wall);
        nFaces          498;
        startFace       159850;
    }
    defaultFaces
    {
        type            empty;
        inGroups        1(empty);
        nFaces          159600;
        startFace       160348;
    }
)

// ************************************************************************* //
